mfiles/case8_isone_1_85.m
function mpc = case8_isone_1_85
%CASE8_ISONE_1_85  8-zone synthetic grid based on ISO-NE data
%  This case represents hour 1/96 (4 days) and scenario 85/90.
%  Original system was created by Dheepak Krishnamurthy, Wanning Li
%  and Leigh Tesfatsion from Iowa State University.
%  Please cite [1] when publishing results based on this system.
%
%  [1] Krishnamurthy, Dheepak, Wanning Li, and Leigh Tesfatsion.
%  "An 8-zone test system based on ISO New England data: Development
%  and application." IEEE Transactions on Power Systems (2015).
%
%  Line capacities (RATE_A, RATE_B, RATE_C) are added based on line flow computation.
%
%  This Matpower case was created by X. Geng (06/21/2020).
%  Complete details (original data, scripts, revised cases) can be found at:
%  https://github.com/xb00dx/ISO-NE-8Zone-Test-System

%% MATPOWER Case Format : Version 2
mpc.version = '2';

%%-----  Power Flow Data  -----%%
%% system MVA base
mpc.baseMVA = 100;

%% bus data
%	bus_i	type	Pd	Qd	Gs	Bs	area	Vm	Va	baseKV	zone	Vmax	Vmin	lam_P	lam_Q	mu_Vmax	mu_Vmin
mpc.bus = [
	1	2	950	0	0	0	1	1	10.3487713	345	1	1.05	0.95	29.6856	0.0000	0.0000	0.0000;
	2	2	2158	0	0	0	2	1	0.667495817	345	2	1.05	0.95	29.6856	0.0000	0.0000	0.0000;
	3	2	1241	0	0	0	3	1	-6.21311377	345	3	1.05	0.95	29.6856	0.0000	0.0000	0.0000;
	4	3	1595	0	0	0	4	1	0	345	4	1.05	0.95	29.6856	0.0000	0.0000	0.0000;
	5	2	677	0	0	0	5	1	0.680932763	345	5	1.05	0.95	29.6856	0.0000	0.0000	0.0000;
	6	2	2722	0	0	0	6	1	-8.60252508	345	6	1.05	0.95	29.6856	0.0000	0.0000	0.0000;
	7	2	507	0	0	0	7	1	2.6068511	345	7	1.05	0.95	29.6856	0.0000	0.0000	0.0000;
	8	2	950	0	0	0	8	1	2.62559842	345	8	1.05	0.95	29.6856	0.0000	0.0000	0.0000;
];

%% generator data
%	bus	Pg	Qg	Qmax	Qmin	Vg	mBase	status	Pmax	Pmin	Pc1	Pc2	Qc1min	Qc1max	Qc2min	Qc2max	ramp_agc	ramp_10	ramp_30	ramp_q	apf	mu_Pmax	mu_Pmin	mu_Qmax	mu_Qmin
mpc.gen = [
	4	1244	0	0	0	1	100	1	1244	0	0	0	0	0	0	0	2	20	60	0	0	19.1880	0.0000	0.0000	0.0000;
	1	1235	0	0	0	1	100	1	1235	0	0	0	0	0	0	0	2	20	60	0	0	19.1175	0.0000	0.0000	0.0000;
	1	881	0	0	0	1	100	1	881	0	0	0	0	0	0	0	2	20	60	0	0	24.4213	0.0000	0.0000	0.0000;
	6	684.7	0	0	0	1	100	1	684.7	0	0	0	0	0	0	0	2	20	60	0	0	22.3981	0.0000	0.0000	0.0000;
	7	620.2	0	0	0	1	100	1	620.2	0	0	0	0	0	0	0	2	20	60	0	0	18.4128	0.0000	0.0000	0.0000;
	5	612	0	0	0	1	100	1	612	0	0	0	0	0	0	0	2	20	60	0	0	11.2588	0.0000	0.0000	0.0000;
	1	372.2	0	0	0	1	100	1	372.2	0	0	0	0	0	0	0	2	20	60	0	0	8.4625	0.0000	0.0000	0.0000;
	1	372.2	0	0	0	1	100	1	372.2	0	0	0	0	0	0	0	2	20	60	0	0	8.4625	0.0000	0.0000	0.0000;
	5	244	0	0	0	1	100	1	244	0	0	0	0	0	0	0	2	20	60	0	0	11.5271	0.0000	0.0000	0.0000;
	5	243.5	0	0	0	1	100	1	243.5	0	0	0	0	0	0	0	2	20	60	0	0	11.4272	0.0000	0.0000	0.0000;
	2	149.8	0	0	0	1	100	1	149.8	0	0	0	0	0	0	0	2	20	60	0	0	11.2497	0.0000	0.0000	0.0000;
	8	144.4	0	0	0	1	100	1	144.4	0	0	0	0	0	0	0	2	20	60	0	0	11.3510	0.0000	0.0000	0.0000;
	2	82	0	0	0	1	100	1	82	0	0	0	0	0	0	0	2	20	60	0	0	11.2660	0.0000	0.0000	0.0000;
	2	80	0	0	0	1	100	1	80	0	0	0	0	0	0	0	2	20	60	0	0	11.3664	0.0000	0.0000	0.0000;
	4	47.9	0	0	0	1	100	1	47.9	0	0	0	0	0	0	0	2	20	60	0	0	9.5457	0.0000	0.0000	0.0000;
	4	47.5	0	0	0	1	100	1	47.5	0	0	0	0	0	0	0	2	20	60	0	0	9.5470	0.0000	0.0000	0.0000;
	2	3.86691937e-11	0	0	0	1	100	1	600.4	0	0	0	0	0	0	0	2	20	60	0	0	0.0000	130.8644	0.0000	0.0000;
	6	4.09618724e-11	0	0	0	1	100	1	558.7	0	0	0	0	0	0	0	2	20	60	0	0	0.0000	123.4744	0.0000	0.0000;
	6	3.11973098e-11	0	0	0	1	100	1	553	0	0	0	0	0	0	0	2	20	60	0	0	0.0000	162.3744	0.0000	0.0000;
	1	3.88124828e-11	0	0	0	1	100	1	447.9	0	0	0	0	0	0	0	2	20	60	0	0	0.0000	130.3144	0.0000	0.0000;
	5	3.12052303e-11	0	0	0	1	100	1	435	0	0	0	0	0	0	0	2	20	60	0	0	0.0000	162.3144	0.0000	0.0000;
	2	2.49418795e-11	0	0	0	1	100	1	431	0	0	0	0	0	0	0	2	20	60	0	0	0.0000	203.3144	0.0000	0.0000;
	1	2.48835077e-11	0	0	0	1	100	1	407.4	0	0	0	0	0	0	0	2	20	60	0	0	0.0000	203.7344	0.0000	0.0000;
	4	1.98515906e-10	0	0	0	1	100	1	400.2	0	0	0	0	0	0	0	2	20	60	0	0	0.0000	24.8844	0.0000	0.0000;
	1	2.97178847e-11	0	0	0	1	100	1	400	0	0	0	0	0	0	0	2	20	60	0	0	0.0000	170.4544	0.0000	0.0000;
	1	3.11863201e-11	0	0	0	1	100	1	236	0	0	0	0	0	0	0	2	20	60	0	0	0.0000	162.3744	0.0000	0.0000;
	1	4.16059071e-11	0	0	0	1	100	1	168	0	0	0	0	0	0	0	2	20	60	0	0	0.0000	121.4744	0.0000	0.0000;
	1	4.1256434e-11	0	0	0	1	100	1	130.5	0	0	0	0	0	0	0	2	20	60	0	0	0.0000	122.4744	0.0000	0.0000;
	1	3.11744357e-11	0	0	0	1	100	1	117	0	0	0	0	0	0	0	2	20	60	0	0	0.0000	162.3744	0.0000	0.0000;
	2	4.06030818e-11	0	0	0	1	100	1	115.5	0	0	0	0	0	0	0	2	20	60	0	0	0.0000	124.4744	0.0000	0.0000;
	1	2.02120741e-10	0	0	0	1	100	1	81	0	0	0	0	0	0	0	2	20	60	0	0	0.0000	24.3144	0.0000	0.0000;
	2	693.8	0	0	0	1	100	1	693.8	0	0	0	0	0	0	0	6.66666667	66.6666667	200	0	0	2.4761	0.0000	0.0000	0.0000;
	2	685.3	0	0	0	1	100	1	685.3	0	0	0	0	0	0	0	6.66666667	66.6666667	200	0	0	0.5435	0.0000	0.0000	0.0000;
	6	1.81781778e-10	0	0	0	1	100	1	675.5	0	0	0	0	0	0	0	6.66666667	66.6666667	200	0	0	0.0000	27.3144	0.0000	0.0000;
	2	8.33422807e-11	0	0	0	1	100	1	554.8	0	0	0	0	0	0	0	6.66666667	66.6666667	200	0	0	0.0000	60.3144	0.0000	0.0000;
	5	336.582107	0	0	0	1	100	1	515.5	0	0	0	0	0	0	0	6.66666667	66.6666667	200	0	0	0.0000	0.0000	0.0000	0.0000;
	4	508	0	0	0	1	100	1	508	0	0	0	0	0	0	0	6.66666667	66.6666667	200	0	0	3.5889	0.0000	0.0000	0.0000;
	2	490.4	0	0	0	1	100	1	490.4	0	0	0	0	0	0	0	6.66666667	66.6666667	200	0	0	3.8217	0.0000	0.0000	0.0000;
	1	2.42029522e-10	0	0	0	1	100	1	447.9	0	0	0	0	0	0	0	6.66666667	66.6666667	200	0	0	0.0000	20.3144	0.0000	0.0000;
	5	42.9178932	0	0	0	1	100	1	270.9	0	0	0	0	0	0	0	6.66666667	66.6666667	200	0	0	0.0000	0.0000	0.0000	0.0000;
	5	1.81464214e-10	0	0	0	1	100	1	264.9	0	0	0	0	0	0	0	6.66666667	66.6666667	200	0	0	0.0000	27.3144	0.0000	0.0000;
	5	248.7	0	0	0	1	100	1	248.7	0	0	0	0	0	0	0	6.66666667	66.6666667	200	0	0	7.4457	0.0000	0.0000	0.0000;
	5	247.8	0	0	0	1	100	1	247.8	0	0	0	0	0	0	0	6.66666667	66.6666667	200	0	0	7.3957	0.0000	0.0000	0.0000;
	5	247.8	0	0	0	1	100	1	247.8	0	0	0	0	0	0	0	6.66666667	66.6666667	200	0	0	7.4957	0.0000	0.0000	0.0000;
	2	2.19844233e-10	0	0	0	1	100	1	244.9	0	0	0	0	0	0	0	6.66666667	66.6666667	200	0	0	0.0000	22.3144	0.0000	0.0000;
	6	1.75177869e-10	0	0	0	1	100	1	244.8	0	0	0	0	0	0	0	6.66666667	66.6666667	200	0	0	0.0000	28.3144	0.0000	0.0000;
	5	1.78177759e-10	0	0	0	1	100	1	238.6	0	0	0	0	0	0	0	6.66666667	66.6666667	200	0	0	0.0000	27.8144	0.0000	0.0000;
	8	238.3	0	0	0	1	100	1	238.3	0	0	0	0	0	0	0	6.66666667	66.6666667	200	0	0	2.8984	0.0000	0.0000	0.0000;
	5	1.84659961e-10	0	0	0	1	100	1	236.4	0	0	0	0	0	0	0	6.66666667	66.6666667	200	0	0	0.0000	26.8144	0.0000	0.0000;
	2	8.32205318e-11	0	0	0	1	100	1	153.5	0	0	0	0	0	0	0	6.66666667	66.6666667	200	0	0	0.0000	60.3144	0.0000	0.0000;
	5	1.84404802e-10	0	0	0	1	100	1	149	0	0	0	0	0	0	0	6.66666667	66.6666667	200	0	0	0.0000	26.8144	0.0000	0.0000;
	5	1.82730834e-10	0	0	0	1	100	1	149	0	0	0	0	0	0	0	6.66666667	66.6666667	200	0	0	0.0000	27.0644	0.0000	0.0000;
	5	1.81134465e-10	0	0	0	1	100	1	149	0	0	0	0	0	0	0	6.66666667	66.6666667	200	0	0	0.0000	27.3144	0.0000	0.0000;
	5	1.79546373e-10	0	0	0	1	100	1	149	0	0	0	0	0	0	0	6.66666667	66.6666667	200	0	0	0.0000	27.5644	0.0000	0.0000;
	6	1.79502215e-10	0	0	0	1	100	1	141.1	0	0	0	0	0	0	0	6.66666667	66.6666667	200	0	0	0.0000	27.5644	0.0000	0.0000;
	8	7.69364897e-11	0	0	0	1	100	1	141	0	0	0	0	0	0	0	6.66666667	66.6666667	200	0	0	0.0000	65.3144	0.0000	0.0000;
	6	1.77708163e-10	0	0	0	1	100	1	104.9	0	0	0	0	0	0	0	6.66666667	66.6666667	200	0	0	0.0000	27.8144	0.0000	0.0000;
	8	7.14920184e-11	0	0	0	1	100	1	104	0	0	0	0	0	0	0	6.66666667	66.6666667	200	0	0	0.0000	70.3144	0.0000	0.0000;
	1	1.76950438e-10	0	0	0	1	100	1	43.9	0	0	0	0	0	0	0	6.66666667	66.6666667	200	0	0	0.0000	27.3444	0.0000	0.0000;
	1	1.76885011e-10	0	0	0	1	100	1	43.5	0	0	0	0	0	0	0	6.66666667	66.6666667	200	0	0	0.0000	27.3444	0.0000	0.0000;
	1	1.76885011e-10	0	0	0	1	100	1	43.5	0	0	0	0	0	0	0	6.66666667	66.6666667	200	0	0	0.0000	27.3444	0.0000	0.0000;
	1	1.76736765e-10	0	0	0	1	100	1	42.6	0	0	0	0	0	0	0	6.66666667	66.6666667	200	0	0	0.0000	27.3444	0.0000	0.0000;
	8	1.47058516e-11	0	0	0	1	100	1	275	0	0	0	0	0	0	0	6.66666667	66.6666667	200	0	0	0.0000	345.3144	0.0000	0.0000;
	5	1.37161088e-11	0	0	0	1	100	1	300	0	0	0	0	0	0	0	6.66666667	66.6666667	200	0	0	0.0000	370.3144	0.0000	0.0000;
	5	1.5851801e-11	0	0	0	1	100	1	325	0	0	0	0	0	0	0	6.66666667	66.6666667	200	0	0	0.0000	320.3144	0.0000	0.0000;
	1	1.71874e-11	0	0	0	1	100	1	225	0	0	0	0	0	0	0	6.66666667	66.6666667	200	0	0	0.0000	295.3144	0.0000	0.0000;
	8	1.47042562e-11	0	0	0	1	100	1	150	0	0	0	0	0	0	0	6.66666667	66.6666667	200	0	0	0.0000	345.3144	0.0000	0.0000;
	8	1.5849316e-11	0	0	0	1	100	1	175	0	0	0	0	0	0	0	6.66666667	66.6666667	200	0	0	0.0000	320.3144	0.0000	0.0000;
	2	1.87741721e-11	0	0	0	1	100	1	175	0	0	0	0	0	0	0	6.66666667	66.6666667	200	0	0	0.0000	270.3144	0.0000	0.0000;
	2	1.94864973e-11	0	0	0	1	100	1	85	0	0	0	0	0	0	0	6.66666667	66.6666667	200	0	0	0.0000	260.3144	0.0000	0.0000;
	2	1.80949174e-11	0	0	0	1	100	1	55	0	0	0	0	0	0	0	6.66666667	66.6666667	200	0	0	0.0000	280.3144	0.0000	0.0000;
	2	1.71885087e-11	0	0	0	1	100	1	150	0	0	0	0	0	0	0	6.66666667	66.6666667	200	0	0	0.0000	295.3144	0.0000	0.0000;
	2	1.58515438e-11	0	0	0	1	100	1	200	0	0	0	0	0	0	0	6.66666667	66.6666667	200	0	0	0.0000	320.3144	0.0000	0.0000;
	2	1.63598843e-11	0	0	0	1	100	1	150	0	0	0	0	0	0	0	6.66666667	66.6666667	200	0	0	0.0000	310.3144	0.0000	0.0000;
	2	1.47038408e-11	0	0	0	1	100	1	100	0	0	0	0	0	0	0	6.66666667	66.6666667	200	0	0	0.0000	345.3144	0.0000	0.0000;
	2	1.81043589e-11	0	0	0	1	100	1	125	0	0	0	0	0	0	0	6.66666667	66.6666667	200	0	0	0.0000	280.3144	0.0000	0.0000;
];

%% branch data
%	fbus	tbus	r	x	b	rateA	rateB	rateC	ratio	angle	status	angmin	angmax	Pf	Qf	Pt	Qt	mu_Sf	mu_St	mu_angmin	mu_angmax
mpc.branch = [
	2	4	0	0.05	0	600	660	720	0	0	1	0	0	23.3000	0.0000	-23.3000	0.0000	0.0000	0.0000	0.0000	0.0000;
	7	4	0	0.04	0	250	275	300	0	0	1	0	0	113.7453	0.0000	-113.7453	0.0000	0.0000	0.0000	0.0000	0.0000;
	7	8	0	0.06	0	250	275	300	0	0	1	0	0	-0.5453	0.0000	0.5453	0.0000	0.0000	0.0000	0.0000	0.0000;
	8	4	0	0.03	0	600	660	720	0	0	1	0	0	152.7511	0.0000	-152.7511	0.0000	0.0000	0.0000	0.0000	0.0000;
	3	8	0	0.03	0	750	825	900	0	0	1	0	0	-514.2154	0.0000	514.2154	0.0000	0.0000	0.0000	0.0000	0.0000;
	3	4	0	0.02	0	750	825	900	0	0	1	0	0	-542.1965	0.0000	542.1965	0.0000	0.0000	0.0000	0.0000	0.0000;
	3	6	0	0.01	0	750	825	900	0	0	1	0	0	417.0309	0.0000	-417.0309	0.0000	0.0000	0.0000	0.0000	0.0000;
	8	1	0	0.01	0	2500	2750	3000	0	0	1	0	0	-1347.9480	0.0000	1347.9480	0.0000	0.0000	0.0000	0.0000	0.0000;
	8	5	0	0.03	0	300	330	360	0	0	1	0	0	113.1361	0.0000	-113.1361	0.0000	0.0000	0.0000	0.0000	0.0000;
	3	5	0	0.02	0	1250	1375	1500	0	0	1	0	0	-601.6191	0.0000	601.6191	0.0000	0.0000	0.0000	0.0000	0.0000;
	1	5	0	0.03	0	800	880	960	0	0	1	0	0	562.4520	0.0000	-562.4520	0.0000	0.0000	0.0000	0.0000	0.0000;
	6	5	0	0.01	0	2500	2750	3000	0	0	1	0	0	-1620.2691	0.0000	1620.2691	0.0000	0.0000	0.0000	0.0000	0.0000;
];

%%-----  OPF Data  -----%%
%% generator cost data
%	1	startup	shutdown	n	x1	y1	...	xn	yn
%	2	startup	shutdown	n	c(n-1)	...	c0
mpc.gencost = [
	2	950000	95000	3	0.0002	10	1000;
	2	850000	85000	3	0.00023	10	1250;
	2	900000	90000	3	0.00015	5	1500;
	2	875000	87500	3	0.00021	7	1250;
	2	925000	92500	3	0.00022	11	1500;
	2	20915.15	2091.515	3	0.00012	18.28	3042.4;
	2	17336.83	1733.683	3	0.00167	19.98	1540;
	2	17500	1750	3	0.00167	19.98	1535;
	2	16860.36	1686.036	3	0.00012	18.1	1212.98;
	2	13947.52	1394.752	3	0.00012	18.2	1210.5;
	2	13872.67	1387.267	3	0.00012	18.4	744.69;
	2	13727.67	1372.767	3	0.00012	18.3	717.85;
	2	3486.01	348.601	3	0.00012	18.4	407.64;
	2	2441.71	244.171	3	0.00012	18.3	397.7;
	2	5774.179	577.4179	3	0.00167	19.98	238.12;
	2	5774.179	577.4179	3	0.00167	19.98	236.13;
	2	115287	11528.7	3	0.02367	160.55	10379;
	2	272400.8	27240.08	3	0.0346	153.16	10707;
	2	191144.1	19114.41	3	0.03463	192.06	12828;
	2	100000	10000	3	0.0236	160	7000;
	2	120000	12000	3	0.0345	192	10000;
	2	85000	8500	3	0.0312	233	8260;
	2	86332.49	8633.249	3	0.00598	233.42	7367;
	2	32566.38	3256.638	3	0.0014	54.57	3175;
	2	62461.34	6246.134	3	0.02184	200.14	11358;
	2	120000	12000	3	0.03463	192.06	5000;
	2	45000	4500	3	0.0347	151.16	4000;
	2	45000	4500	3	0.0345	152.16	3500;
	2	80000	8000	3	0.03463	192.06	2800;
	2	45000	4500	3	0.0346	154.16	3000;
	2	12000	1200	3	0.002	54	2100;
	2	66889.42	6688.942	3	0.00294	23.13	3858.73;
	2	66889.42	6688.942	3	0.00292	25.14	3858.73;
	2	76560.21	7656.021	3	0.00292	57	610.84;
	2	25000	2500	3	0.00292	90	612.84;
	2	325.75	32.575	3	0.00292	27.72	0;
	2	1000	100	3	0.00292	23.13	0;
	2	1000	100	3	0.00292	23	0;
	2	2500	250	3	0.00292	50	0;
	2	2352	235.2	3	0.0229	27.72	0;
	2	12000	1200	3	0.003	57	500;
	2	11112.19	1111.219	3	2e-05	22.23	699.7;
	2	11112.19	1111.219	3	2e-05	22.28	699.7;
	2	11112.19	1111.219	3	2e-05	22.18	699.7;
	2	62500	6250	3	0.003	52	0;
	2	12000	1200	3	0.004	58	475;
	2	12000	1200	3	0.0035	57.5	485;
	2	7500	750	3	0.00375	25	250;
	2	12000	1200	3	0.00372	56.5	495;
	2	5000	500	3	0.0041	90	250;
	2	7250	725	3	0.008	56.5	250;
	2	4000	400	3	0.013	56.75	350;
	2	3500	350	3	0.0175	57	325;
	2	4000	400	3	0.022	57.25	375;
	2	5000	500	3	0.015	57.25	320;
	2	7250	725	3	0.0035	95	200;
	2	2500	250	3	0.005	57.5	300;
	2	7750	775	3	0.0075	100	250;
	2	325.75	32.575	3	0.02133	57.03	612.84;
	2	325.75	32.575	3	0.02133	57.03	612.84;
	2	325.75	32.575	3	0.02133	57.03	612.84;
	2	325.75	32.575	3	0.02133	57.03	612.84;
	2	0	0	3	0.0042	375	0;
	2	0	0	3	0.0035	400	0;
	2	0	0	3	0.0036	350	0;
	2	0	0	3	0.0342	325	0;
	2	0	0	3	0.008	375	0;
	2	0	0	3	0.009	350	0;
	2	0	0	3	0.009	300	0;
	2	0	0	3	0.009	290	0;
	2	0	0	3	0.009	310	0;
	2	0	0	3	0.009	325	0;
	2	0	0	3	0.008	350	0;
	2	0	0	3	0.0075	340	0;
	2	0	0	3	0.0085	375	0;
	2	0	0	3	0.0095	310	0;
];

%% generator fuel type (see GENFUELS)
mpc.genfuel = {
	'NUC ';
	' NUC ';
	' NUC ';
	' NUC ';
	' NUC ';
	' BIT ';
	' SUB ';
	' SUB ';
	' BIT ';
	' BIT ';
	' BIT ';
	' BIT ';
	' BIT ';
	' BIT ';
	' BIT ';
	' BIT ';
	' RFO ';
	' RFO ';
	' RFO ';
	' RFO ';
	' RFO ';
	' RFO ';
	' RFO ';
	' RFO ';
	' RFO ';
	' RFO ';
	' RFO ';
	' RFO ';
	' RFO ';
	' RFO ';
	' RFO ';
	' NGLN ';
	' NGLN ';
	' NGA4 ';
	' NGA1 ';
	' NGTN ';
	' NGMN ';
	' NGMN ';
	' NGIR ';
	' NGTN ';
	' NGA4 ';
	' NGA4 ';
	' NGA4 ';
	' NGA4 ';
	' NGPN ';
	' NGA4 ';
	' NGA4 ';
	' NGT2 ';
	' NGA4 ';
	' NGA1 ';
	' NGT4 ';
	' NGA4 ';
	' NGA4 ';
	' NGA4 ';
	' NGA4 ';
	' NGT1 ';
	' NGA4 ';
	' NGT2 ';
	' NGA4 ';
	' NGA4 ';
	' NGA4 ';
	' NGA4 ';
	' NGTN ';
	' NGTN ';
	' NGTN ';
	' RFO ';
	' NGT2 ';
	' NGT2 ';
	' NGPN ';
	' NGPN ';
	' NGPN ';
	' NGTN ';
	' NGTN ';
	' NGTN ';
	' NGTN ';
	' NGTN ';
};
